[TITLE]


[JUNCTIONS]
;ID              	Elev        	Demand      	Pattern         
 J-13            	442.9134    	2.93        	1               	;
 J-14            	446.1942    	3.56        	1               	;
 J-17            	410.105     	7.41        	1               	;
 J-23            	429.79      	6.35        	1               	;
 J-24            	452.7559    	2.65        	1               	;
 J-26            	433.0709    	2.6         	1               	;
 J-27            	436.3517    	9.35        	1               	;
 J-276           	406.8242    	13.14       	1               	;
 J-28            	452.7559    	3.29        	1               	;
 J-29            	436.3517    	5.03        	1               	;
 J-31            	413.3858    	2.3         	1               	;
 J-34            	456.0367    	2.66        	1               	;
 J-37            	449.4751    	2.52        	1               	;
 J-4             	442.9134    	0.36        	1               	;
 J-40            	419.9475    	8.53        	1               	;
 J-41            	419.9475    	2.17        	1               	;
 J-42            	423.2284    	5.04        	1               	;
 J-43            	426.5092    	5.03        	1               	;
 J-45            	429.79      	0           	                	;
 J-46            	439.6325    	4.4         	1               	;
 J-49            	413.3858    	4.97        	1               	;
 J-52            	436.3517    	1.82        	1               	;
 J-61            	406.8242    	13.61       	1               	;
 J-63            	416.6667    	8.35        	1               	;
 J-64            	416.6667    	5.27        	1               	;
 J-68            	429.79      	5.12        	1               	;
 J-69            	429.79      	5.2         	1               	;
 J-75            	416.6667    	4.68        	1               	;
 J-80            	416.6667    	4.3         	1               	;
 J-84            	446.1942    	4.82        	1               	;
 J-85            	419.9475    	4.66        	1               	;
 J-87            	433.0709    	4.26        	1               	;
 J-88            	423.2284    	5.07        	1               	;
 J-89            	459.3176    	5.7         	1               	;
 J-91            	406.8242    	4.47        	1               	;
 J-92            	416.6667    	2.51        	1               	;
 J-93            	423.2284    	0.64        	1               	;
 J-94            	429.79      	5.51        	1               	;
 J-95            	449.4751    	1.33        	1               	;
 J-97            	429.79      	2.58        	1               	;
 J-99            	429.79      	6.28        	1               	;
 I-Pump-1        	410.105     	0           	                	;
 O-Pump-1        	410.105     	0           	                	;

[RESERVOIRS]
;ID              	Head        	Pattern         
 R-3             	400         	                	;

[TANKS]
;ID              	Elevation   	InitLevel   	MinLevel    	MaxLevel    	Diameter    	MinVol      	VolCurve        	Overflow

[PIPES]
;ID              	Node1           	Node2           	Length      	Diameter    	Roughness   	MinorLoss   	Status
 P-10            	J-17            	J-276           	1300.28     	8           	100         	0           	Open  	;
 P-101           	J-88            	J-42            	445.299     	8           	100         	0           	Open  	;
 P-102           	J-276           	J-31            	997.26      	8           	100         	0           	Open  	;
 P-103           	J-29            	J-27            	432.69      	8           	100         	0           	Open  	;
 P-13            	J-23            	J-24            	608.34      	10          	100         	0           	Open  	;
 P-15            	J-27            	J-24            	856.2       	6           	100         	0           	Open  	;
 P-16            	J-28            	J-29            	832.039     	6           	100         	0           	Open  	;
 P-19            	J-34            	J-28            	237         	12          	100         	0           	Open  	;
 P-20            	J-28            	J-13            	230.169     	12          	100         	0           	Open  	;
 P-21            	J-17            	J-75            	1239.089    	8           	100         	0           	Open  	;
 P-23            	J-14            	J-37            	584.489     	12          	100         	0           	Open  	;
 P-25            	J-40            	J-64            	854.739     	6           	100         	0           	Open  	;
 P-26            	J-42            	J-43            	644.25      	8           	100         	0           	Open  	;
 P-29            	J-46            	J-34            	581.299     	6           	100         	0           	Open  	;
 P-31            	J-276           	J-40            	362.709     	8           	100         	0           	Open  	;
 P-32            	J-17            	J-31            	299.649     	8           	100         	0           	Open  	;
 P-33            	J-49            	J-41            	935.03      	8           	100         	0           	Open  	;
 P-34            	J-46            	J-26            	1120.41     	8           	100         	0           	Open  	;
 P-340           	J-63            	J-26            	1913.439    	8           	100         	0           	Open  	;
 P-342           	R-3             	I-Pump-1        	53.4        	10          	100         	0           	Open  	;
 P-343           	J-75            	J-63            	228.6       	8           	100         	0           	Open  	;
 P-35            	J-13            	J-52            	587.479     	6           	100         	0           	Open  	;
 P-353           	J-99            	J-45            	223.669     	8           	100         	0           	Open  	;
 P-354           	J-45            	J-23            	154.25      	12          	100         	0           	Open  	;
 P-355           	J-4             	J-64            	1637.449    	8           	100         	0           	Open  	;
 P-356           	J-26            	J-45            	572.219     	8           	100         	0           	Open  	;
 P-357           	J-31            	J-49            	358.63      	8           	100         	0           	Open  	;
 P-358           	J-64            	J-276           	1227.089    	8           	100         	0           	Open  	;
 P-367           	J-41            	J-14            	1566.03     	6           	100         	0           	Open  	;
 P-41            	O-Pump-1        	J-63            	411.739     	10          	100         	0           	Open  	;
 P-42            	J-40            	J-41            	70.699      	6           	100         	0           	Open  	;
 P-48            	J-68            	J-69            	666.14      	8           	100         	0           	Open  	;
 P-55            	J-61            	J-64            	849.489     	6           	100         	0           	Open  	;
 P-60            	J-43            	J-68            	450.69      	8           	100         	0           	Open  	;
 P-62            	J-80            	J-94            	507.39      	12          	100         	0           	Open  	;
 P-71            	J-84            	J-85            	799.13      	6           	100         	0           	Open  	;
 P-72            	J-24            	J-34            	268.25      	10          	100         	0           	Open  	;
 P-73            	J-37            	J-4             	235.69      	12          	100         	0           	Open  	;
 P-74            	J-87            	J-88            	801.83      	6           	100         	0           	Open  	;
 P-75            	J-80            	J-43            	804.539     	6           	100         	0           	Open  	;
 P-76            	J-14            	J-97            	810.429     	8           	100         	0           	Open  	;
 P-77            	J-27            	J-89            	2456.27     	8           	100         	0           	Open  	;
 P-78            	J-69            	J-37            	814.659     	6           	100         	0           	Open  	;
 P-79            	J-61            	J-91            	478.44      	6           	150         	0           	Open  	;
 P-8             	J-13            	J-14            	488         	12          	100         	0           	Open  	;
 P-82            	J-92            	J-87            	484.04      	12          	100         	0           	Open  	;
 P-83            	J-93            	J-85            	277.95      	8           	100         	0           	Open  	;
 P-84            	J-91            	J-94            	1291.979    	8           	100         	0           	Open  	;
 P-85            	J-84            	J-95            	864.82      	12          	100         	0           	Open  	;
 P-87            	J-69            	J-97            	486.079     	8           	100         	0           	Open  	;
 P-88            	J-42            	J-92            	806.69      	6           	100         	0           	Open  	;
 P-89            	J-49            	J-75            	549.239     	8           	100         	0           	Open  	;
 P-90            	J-94            	J-4             	555.38      	8           	100         	0           	Open  	;
 P-92            	J-80            	J-92            	664.19      	12          	100         	0           	Open  	;
 P-93            	J-87            	J-84            	657.919     	12          	100         	0           	Open  	;
 P-94            	J-85            	J-88            	666.609     	8           	100         	0           	Open  	;
 P-95            	J-94            	J-68            	811.039     	6           	100         	0           	Open  	;
 P-96            	J-97            	J-29            	623.25      	8           	100         	0           	Open  	;

[PUMPS]
;ID              	Node1           	Node2           	Parameters
 ~@Pump-1        	I-Pump-1        	O-Pump-1        	POWER 20	;

[VALVES]
;ID              	Node1           	Node2           	Diameter    	Type	Setting     	MinorLoss   

[TAGS]

[DEMANDS]
;Junction        	Demand      	Pattern         	Category

[STATUS]
;ID              	Status/Setting

[PATTERNS]
;ID              	Multipliers
;
 1               	0.33        	0.25        	0.209       	0.209       	0.259       	0.36        
 1               	0.529       	0.91        	1.2         	1.299       	1.34        	1.34        
 1               	1.32        	1.269       	1.25        	1.25        	1.279       	1.37        
 1               	1.519       	1.7         	1.75        	1.669       	0.899       	0.479       
;
 11              	1           
;
 ENRG1           	1           	1           	1           	1           	1           	1           
 ENRG1           	1           	1           	1           	1           	1           	1           
 ENRG1           	1           	1           	1           	1           	1           	1           
 ENRG1           	1           	1           	1           	1           	1           

[CURVES]
;ID              	X-Value     	Y-Value

[CONTROLS]
LINK ~@Pump-4  OPEN  IF NODE T-2           BELOW  152.244 
LINK ~@Pump-4  CLOSED  IF NODE T-2         ABOVE  167.244 


[RULES]


[ENERGY]
 Global Efficiency  	75
 Global Price       	0
 Global Pattern     	ENRG1
 Demand Charge      	0

[EMITTERS]
;Junction        	Coefficient

[QUALITY]
;Node            	InitQual

[SOURCES]
;Node            	Type        	Quality     	Pattern

[REACTIONS]
;Type     	Pipe/Tank       	Coefficient


[REACTIONS]
 Order Bulk            	0
 Order Tank            	0
 Order Wall            	0
 Global Bulk           	0
 Global Wall           	0
 Limiting Potential    	0
 Roughness Correlation 	0

[MIXING]
;Tank            	Model

[TIMES]
 Duration           	0:00 
 Hydraulic Timestep 	1:00 
 Quality Timestep   	0:05 
 Pattern Timestep   	1:00 
 Pattern Start      	0:00 
 Report Timestep    	1:00 
 Report Start       	0:00 
 Start ClockTime    	12 am
 Statistic          	NONE

[REPORT]
 Status             	Full
 Summary            	No
 Page               	0

[OPTIONS]
 Units              	GPM
 Headloss           	H-W
 Specific Gravity   	1
 Viscosity          	1
 Trials             	20
 Accuracy           	0.0001
 CHECKFREQ          	2
 MAXCHECK           	10
 DAMPLIMIT          	0
 Unbalanced         	Continue 10
 Pattern            	1
 Demand Multiplier  	1.0
 Emitter Exponent   	0.5
 Quality            	AGE mg/L
 Diffusivity        	0.05
 Tolerance          	0.01

[COORDINATES]
;Node            	X-Coord           	Y-Coord
J-13            	4309122.160       	3779740.000       
J-14            	4308689.060       	3779516.000       
J-17            	4308452.950       	3781906.000       
J-23            	4310385.550       	3780182.000       
J-24            	4309798.090       	3780026.000       
J-26            	4310454.950       	3780775.000       
J-27            	4310038.100       	3779204.000       
J-276           	4307717.230       	3781182.000       
J-28            	4309329.560       	3779840.000       
J-29            	4309628.940       	3779063.000       
J-31            	4308600.430       	3781645.000       
J-34            	4309543.100       	3779942.000       
J-37            	4308189.480       	3779215.000       
J-4             	4308000.720       	3779074.000       
J-40            	4307885.200       	3780861.000       
J-41            	4307947.410       	3780894.000       
J-42            	4307396.620       	3777320.000       
J-43            	4307806.130       	3777817.000       
J-45            	4310537.510       	3780209.000       
J-46            	4309371.530       	3780498.000       
J-49            	4308773.880       	3781331.000       
J-52            	4308883.840       	3780277.000       
J-61            	4306392.780       	3780039.000       
J-63            	4309464.420       	3781689.000       
J-64            	4307132.240       	3780456.000       
J-68            	4308128.760       	3778132.000       
J-69            	4308651.460       	3778544.000       
J-75            	4309262.380       	3781582.000       
J-80            	4307214.040       	3778362.000       
J-84            	4306082.810       	3776954.000       
J-85            	4306703.310       	3776451.000       
J-87            	4306491.090       	3777470.000       
J-88            	4307119.130       	3776972.000       
J-89            	4312470.800       	3779304.000       
J-91            	4306684.470       	3779660.000       
J-92            	4306789.570       	3777851.000       
J-93            	4306531.410       	3776232.000       
J-94            	4307571.850       	3778721.000       
J-95            	4305543.860       	3776278.000       
J-97            	4309065.320       	3778798.000       
J-99            	4310573.540       	3779988.000       
I-Pump-1        	4309413.130       	3782098.000       
O-Pump-1        	4309413.130       	3782098.000       
R-3             	4309464.000       	3782089.000       

[VERTICES]
;Link            	X-Coord           	Y-Coord
P-10            	4307970.360       	3781654.180       
P-10            	4307569.690       	3781451.330       
P-10            	4307628.120       	3781351.680       
P-102           	4308483.940       	3781587.470       
P-102           	4308595.700       	3781643.750       
P-103           	4309766.110       	3779114.830       
P-13            	4310322.700       	3780170.090       
P-13            	4309930.150       	3780069.430       
P-15            	4309798.570       	3780024.720       
P-15            	4309798.490       	3780025.190       
P-21            	4308470.460       	3781915.530       
P-21            	4308884.370       	3782142.650       
P-21            	4308937.570       	3782167.360       
P-21            	4308957.450       	3782168.870       
P-21            	4308977.080       	3782161.800       
P-21            	4308994.020       	3782147.430       
P-21            	4309018.360       	3782108.410       
P-21            	4309066.430       	3782007.380       
P-23            	4308330.900       	3779321.200       
P-25            	4307444.170       	3780623.010       
P-25            	4307133.290       	3780457.240       
P-26            	4307640.500       	3777623.640       
P-29            	4309413.780       	3780381.060       
P-31            	4307836.330       	3780948.920       
P-32            	4308505.360       	3781817.390       
P-33            	4308525.500       	3781206.140       
P-33            	4308205.650       	3781036.570       
P-33            	4307988.860       	3780914.540       
P-34            	4309675.200       	3780599.240       
P-34            	4309967.990       	3780679.580       
P-34            	4310215.920       	3780737.230       
P-34            	4310451.530       	3780776.060       
P-340           	4309529.860       	3781728.470       
P-340           	4309609.150       	3781788.210       
P-340           	4309724.040       	3781886.950       
P-340           	4309772.910       	3781920.750       
P-340           	4309851.020       	3781967.070       
P-340           	4309917.690       	3781997.890       
P-340           	4309931.470       	3782000.110       
P-340           	4309942.700       	3781998.040       
P-340           	4309952.920       	3781991.480       
P-340           	4309963.440       	3781978.590       
P-340           	4309988.820       	3781932.240       
P-340           	4310287.420       	3781348.220       
P-340           	4310322.420       	3781277.250       
P-340           	4310354.090       	3781203.160       
P-340           	4310381.440       	3781127.320       
P-340           	4310412.570       	3781015.550       
P-340           	4310434.110       	3780913.540       
P-343           	4309440.530       	3781675.420       
P-353           	4310538.670       	3780200.230       
P-355           	4307865.740       	3779256.310       
P-355           	4307751.930       	3779415.600       
P-355           	4307657.460       	3779529.770       
P-355           	4307569.530       	3779652.070       
P-355           	4307496.150       	3779767.030       
P-355           	4307365.900       	3780020.280       
P-355           	4307313.520       	3780128.820       
P-356           	4310535.320       	3780227.650       
P-358           	4307113.970       	3780491.560       
P-358           	4306960.080       	3780786.500       
P-358           	4307134.630       	3780886.560       
P-358           	4307452.140       	3781051.070       
P-358           	4307608.970       	3781136.060       
P-367           	4308259.410       	3780290.840       
P-367           	4308650.880       	3779575.200       
P-367           	4308667.710       	3779541.690       
P-48            	4308425.670       	3778379.650       
P-48            	4308526.030       	3778456.160       
P-55            	4306558.470       	3780149.950       
P-55            	4306991.250       	3780381.450       
P-55            	4307131.010       	3780455.930       
P-60            	4307960.470       	3777978.070       
P-62            	4307304.150       	3778461.940       
P-62            	4307417.480       	3778577.070       
P-62            	4307490.680       	3778648.670       
P-73            	4308001.040       	3779074.570       
P-76            	4308703.510       	3779479.240       
P-76            	4309064.720       	3778800.520       
P-77            	4310181.560       	3779247.370       
P-77            	4310372.720       	3779292.350       
P-77            	4310536.980       	3779324.680       
P-77            	4310682.070       	3779345.880       
P-77            	4310883.240       	3779370.730       
P-77            	4311059.620       	3779388.640       
P-77            	4311278.590       	3779397.600       
P-77            	4311495.370       	3779397.300       
P-77            	4311698.910       	3779386.650       
P-77            	4312030.240       	3779357.800       
P-78            	4308190.390       	3779214.420       
P-79            	4306548.540       	3779830.810       
P-8             	4308823.050       	3779596.390       
P-82            	4306788.510       	3777850.450       
P-82            	4306765.170       	3777821.370       
P-83            	4306549.870       	3776254.320       
P-85            	4305786.460       	3776581.950       
P-85            	4305650.010       	3776405.430       
P-87            	4308849.110       	3778674.870       
P-87            	4309041.430       	3778785.670       
P-88            	4306789.690       	3777851.650       
P-88            	4306789.620       	3777851.710       
P-90            	4307584.030       	3778733.360       
P-90            	4307746.350       	3778873.830       
P-92            	4307040.870       	3778163.250       
P-94            	4307101.660       	3776950.330       
P-96            	4309162.540       	3778852.410       
P-96            	4309289.410       	3778916.440       
P-96            	4309467.660       	3778996.540       

[LABELS]
;X-Coord             Y-Coord             Label & Anchor Node

[BACKDROP]
  DIMENSIONS  	4288135.450       	3769383.550       	4316518.430       	3824151.450       
 UNITS          	None
 FILE           	
 OFFSET         	0.00            	0.00            

[END]
