[TITLE]


[JUNCTIONS]
;ID              	Elev        	Demand      	Pattern         
 JUNCTION-0      	35.507973   	2.698230    	PATTERN-1       	;
 JUNCTION-1      	30.0        	0           	PATTERN-1       	;
 JUNCTION-2      	47.460948999999999	0           	PATTERN-1       	;
 JUNCTION-3      	68.614598000000001	0.764690    	PATTERN-1       	;
 JUNCTION-4      	54.953991000000002	1.610050    	PATTERN-1       	;
 JUNCTION-5      	47.5        	3.422390    	PATTERN-1       	;
 JUNCTION-6      	57.5        	0.517490    	PATTERN-1       	;
 JUNCTION-7      	48.340069999999997	1.050930    	PATTERN-1       	;
 JUNCTION-8      	55.670732999999998	1.376360    	PATTERN-1       	;
 JUNCTION-9      	52.5        	3.980880    	PATTERN-1       	;
 JUNCTION-10     	64.669939999999997	1.495030    	PATTERN-1       	;
 JUNCTION-11     	67.864892999999995	1.198260    	PATTERN-1       	;
 JUNCTION-12     	72.165920999999997	1.854230    	PATTERN-1       	;
 JUNCTION-13     	55.968269999999997	0           	PATTERN-1       	;
 JUNCTION-14     	40.0        	1.557990    	PATTERN-1       	;
 JUNCTION-15     	65.839155000000005	1.105490    	PATTERN-1       	;
 JUNCTION-16     	70.637718000000007	1.248950    	PATTERN-1       	;
 JUNCTION-17     	57.436489000000002	0.715410    	PATTERN-1       	;
 JUNCTION-18     	53.907684000000003	0.756120    	PATTERN-1       	;
 JUNCTION-19     	75.0        	1.458210    	PATTERN-1       	;
 JUNCTION-20     	70.117138999999995	0.664010    	PATTERN-1       	;
 JUNCTION-21     	63.521161999999997	1.846190    	PATTERN-1       	;
 JUNCTION-22     	75.0        	2.153590    	PATTERN-1       	;
 JUNCTION-23     	63.449807999999997	0.697790    	PATTERN-1       	;
 JUNCTION-24     	71.758521999999999	0.983870    	PATTERN-1       	;
 JUNCTION-25     	42.322583000000002	2.963250    	PATTERN-1       	;
 JUNCTION-26     	67.512392000000006	1.797790    	PATTERN-1       	;
 JUNCTION-27     	63.912132999999997	1.527300    	PATTERN-1       	;
 JUNCTION-28     	72.604799999999997	2.135780    	PATTERN-1       	;
 JUNCTION-29     	80.505735000000001	1.429080    	PATTERN-1       	;
 JUNCTION-30     	82.921644999999998	1.295660    	PATTERN-1       	;
 JUNCTION-31     	53.244145000000003	2.440100    	PATTERN-1       	;
 JUNCTION-32     	48.079813000000001	3.871440    	PATTERN-1       	;
 JUNCTION-33     	45.0        	3.022640    	PATTERN-1       	;
 JUNCTION-34     	51.526392000000001	1.904850    	PATTERN-1       	;
 JUNCTION-35     	53.943232999999999	3.662680    	PATTERN-1       	;
 JUNCTION-36     	48.887320000000003	1.794500    	PATTERN-1       	;
 JUNCTION-37     	52.109127999999998	0.780680    	PATTERN-1       	;
 JUNCTION-38     	45.703234000000002	1.916090    	PATTERN-1       	;
 JUNCTION-39     	45.0        	3.616750    	PATTERN-1       	;
 JUNCTION-40     	42.286777000000001	1.684120    	PATTERN-1       	;
 JUNCTION-44     	49.154134999999997	1.563990    	PATTERN-1       	;
 JUNCTION-45     	45.0        	2.195460    	PATTERN-1       	;
 JUNCTION-46     	50.703712000000003	1.404720    	PATTERN-1       	;
 JUNCTION-47     	57.254179000000001	1.108360    	PATTERN-1       	;
 JUNCTION-48     	47.449593999999998	1.928050    	PATTERN-1       	;
 JUNCTION-49     	53.985072000000002	4.337540    	PATTERN-1       	;
 JUNCTION-50     	57.5        	1.382080    	PATTERN-1       	;
 JUNCTION-51     	53.072839999999999	1.297870    	PATTERN-1       	;
 JUNCTION-52     	52.245097999999999	2.755070    	PATTERN-1       	;
 JUNCTION-53     	52.5        	1.441610    	PATTERN-1       	;
 JUNCTION-54     	41.534196999999999	2.696950    	PATTERN-1       	;
 JUNCTION-55     	49.427106999999999	1.434040    	PATTERN-1       	;
 JUNCTION-56     	45.978510999999997	0.722810    	PATTERN-1       	;
 JUNCTION-57     	36.354627999999998	2.834140    	PATTERN-1       	;
 JUNCTION-58     	57.416381999999999	1.271810    	PATTERN-1       	;
 JUNCTION-59     	37.402740999999999	2.731490    	PATTERN-1       	;
 JUNCTION-69     	60.0        	0           	PATTERN-1       	;
 JUNCTION-77     	30.915831000000001	0.122890    	PATTERN-1       	;
 JUNCTION-78     	30.0        	1.401580    	PATTERN-1       	;
 JUNCTION-79     	43.490155999999999	1.213570    	PATTERN-1       	;
 JUNCTION-80     	60.0        	0.478120    	PATTERN-1       	;
 JUNCTION-81     	44.638188999999997	1.244390    	PATTERN-1       	;
 JUNCTION-86     	30.0        	0.865870    	PATTERN-1       	;
 JUNCTION-88     	30.0        	0           	PATTERN-1       	;
 JUNCTION-91     	60.0        	3.772870    	PATTERN-1       	;
 JUNCTION-93     	30.0        	1.110320    	PATTERN-1       	;
 JUNCTION-94     	30.0        	1.217520    	PATTERN-1       	;
 JUNCTION-102    	56.0        	4.562840    	PATTERN-1       	;
 JUNCTION-113    	67.050937000000005	0           	PATTERN-1       	;
 JUNCTION-114    	45.0        	1.554510    	PATTERN-1       	;
 JUNCTION-125    	55.0        	1.790400    	PATTERN-1       	;
 JUNCTION-136    	55.0        	2.307920    	PATTERN-1       	;
 JUNCTION-147    	47.925766000000003	4.255390    	PATTERN-1       	;
 JUNCTION-152    	52.345232000000003	1.052080    	PATTERN-1       	;
 JUNCTION-154    	57.077036999999997	1.387520    	PATTERN-1       	;
 JUNCTION-157    	60.815739000000001	0.525720    	PATTERN-1       	;
 JUNCTION-158    	46.433352999999997	1.638280    	PATTERN-1       	;
 JUNCTION-160    	57.099358000000002	1.680360    	PATTERN-1       	;
 JUNCTION-161    	47.725031999999999	0.914580    	PATTERN-1       	;
 JUNCTION-162    	43.419854999999998	2.147410    	PATTERN-1       	;
 JUNCTION-165    	42.762861999999998	3.998740    	PATTERN-1       	;
 JUNCTION-167    	38.23997    	0.622110    	PATTERN-1       	;
 JUNCTION-169    	47.828443999999998	2.214500    	PATTERN-1       	;
 JUNCTION-175    	42.982908000000002	1.892440    	PATTERN-1       	;
 JUNCTION-176    	40.0        	1.712860    	PATTERN-1       	;
 JUNCTION-177    	42.5        	2.562930    	PATTERN-1       	;
 JUNCTION-178    	40.0        	4.672750    	PATTERN-1       	;
 JUNCTION-179    	50.0        	0.840650    	PATTERN-1       	;
 JUNCTION-180    	48.476852999999998	3.066170    	PATTERN-1       	;
 JUNCTION-181    	42.509556000000003	1.047920    	PATTERN-1       	;
 JUNCTION-182    	43.196089999999998	0.594830    	PATTERN-1       	;
 JUNCTION-183    	43.994512   	0.295870    	PATTERN-1       	;
 JUNCTION-184    	42.5        	0           	PATTERN-1       	;
 JUNCTION-185    	46.410870000000003	0.513240    	PATTERN-1       	;
 JUNCTION-186    	42.265614999999997	0           	PATTERN-1       	;
 JUNCTION-187    	40.0        	0.325650    	PATTERN-1       	;
 JUNCTION-188    	41.722403   	0.262640    	PATTERN-1       	;
 JUNCTION-189    	53.735455999999999	9.709890    	PATTERN-1       	;
 JUNCTION-190    	46.818289   	0.461870    	PATTERN-1       	;
 JUNCTION-191    	46.395288000000001	3.134330    	PATTERN-1       	;
 JUNCTION-198    	38.684123999999997	1.077640    	PATTERN-1       	;
 JUNCTION-199    	41.819871999999997	1.324930    	PATTERN-1       	;
 JUNCTION-200    	43.265501999999998	0.797740    	PATTERN-1       	;
 JUNCTION-201    	39.110250000000001	0.839210    	PATTERN-1       	;
 JUNCTION-202    	52.954318000000001	1.451590    	PATTERN-1       	;
 JUNCTION-203    	40.233390999999997	0.703190    	PATTERN-1       	;
 JUNCTION-204    	36.753573000000003	0.566950    	PATTERN-1       	;
 JUNCTION-205    	38.917065000000001	0.999930    	PATTERN-1       	;
 JUNCTION-208    	35.288272999999997	0.797840    	PATTERN-1       	;
 JUNCTION-209    	36.833184000000003	0.428980    	PATTERN-1       	;
 JUNCTION-210    	37.826296999999997	2.763640    	PATTERN-1       	;
 JUNCTION-211    	37.795448999999998	4.434970    	PATTERN-1       	;
 JUNCTION-212    	39.658980999999997	2.761450    	PATTERN-1       	;
 JUNCTION-213    	52.634895999999998	1.023380    	PATTERN-1       	;
 JUNCTION-214    	38.675725999999997	4.048140    	PATTERN-1       	;
 JUNCTION-215    	35.0        	2.978860    	PATTERN-1       	;
 JUNCTION-216    	45.328834999999998	0.941270    	PATTERN-1       	;
 JUNCTION-218    	48.597042999999999	1.250810    	PATTERN-1       	;
 JUNCTION-219    	45.657229999999998	3.124570    	PATTERN-1       	;
 JUNCTION-220    	46.957037999999997	0.364870    	PATTERN-1       	;
 JUNCTION-221    	46.904519000000001	1.397230    	PATTERN-1       	;
 JUNCTION-222    	43.910964999999997	3.504380    	PATTERN-1       	;
 JUNCTION-223    	42.407724999999999	4.164880    	PATTERN-1       	;
 JUNCTION-224    	59.288682000000001	2.436280    	PATTERN-1       	;
 JUNCTION-225    	65.0        	1.907830    	PATTERN-1       	;
 JUNCTION-226    	42.383907000000001	0.645100    	PATTERN-1       	;
 JUNCTION-227    	40.0        	0.398730    	PATTERN-1       	;
 JUNCTION-228    	45.0        	0.819350    	PATTERN-1       	;
 JUNCTION-229    	42.473762000000001	2.183870    	PATTERN-1       	;
 JUNCTION-230    	45.0        	0.308840    	PATTERN-1       	;
 JUNCTION-231    	45.0        	0.445980    	PATTERN-1       	;
 JUNCTION-232    	47.5        	0.691940    	PATTERN-1       	;
 JUNCTION-233    	53.649012999999997	2.140690    	PATTERN-1       	;
 JUNCTION-234    	32.434533000000002	0.808370    	PATTERN-1       	;
 JUNCTION-235    	37.5        	0.255680    	PATTERN-1       	;
 JUNCTION-236    	55.0        	0.691740    	PATTERN-1       	;
 JUNCTION-237    	37.5        	0.154460    	PATTERN-1       	;
 JUNCTION-238    	40.0        	0           	PATTERN-1       	;
 JUNCTION-239    	41.352916   	0.672570    	PATTERN-1       	;
 JUNCTION-240    	40.0        	9.225520    	PATTERN-1       	;
 JUNCTION-241    	42.5        	0           	PATTERN-1       	;
 JUNCTION-242    	41.356121000000002	0           	PATTERN-1       	;
 JUNCTION-243    	45.0        	0.173950    	PATTERN-1       	;
 JUNCTION-244    	46.504145000000001	1.894700    	PATTERN-1       	;
 JUNCTION-245    	48.255043999999998	2.288410    	PATTERN-1       	;
 JUNCTION-246    	47.041167000000002	3.838260    	PATTERN-1       	;
 JUNCTION-247    	51.802281999999998	0.185820    	PATTERN-1       	;
 JUNCTION-248    	42.5        	1.048610    	PATTERN-1       	;
 JUNCTION-249    	40.0        	2.307440    	PATTERN-1       	;
 JUNCTION-250    	40.0        	0.495490    	PATTERN-1       	;
 JUNCTION-251    	42.5        	3.221150    	PATTERN-1       	;
 JUNCTION-252    	42.5        	2.338260    	PATTERN-1       	;
 JUNCTION-253    	38.210641000000003	3.638470    	PATTERN-1       	;
 JUNCTION-254    	40.0        	1.491860    	PATTERN-1       	;
 JUNCTION-255    	49.957966999999996	0.246030    	PATTERN-1       	;
 JUNCTION-256    	52.118121000000002	0           	PATTERN-1       	;
 JUNCTION-257    	48.830857999999999	0           	PATTERN-1       	;
 JUNCTION-258    	57.289470000000001	0.815820    	PATTERN-1       	;
 JUNCTION-259    	42.463261000000003	0.350580    	PATTERN-1       	;
 JUNCTION-260    	47.669012000000002	0           	PATTERN-1       	;
 JUNCTION-261    	48.461039999999997	0           	PATTERN-1       	;
 JUNCTION-262    	45.0        	0.255460    	PATTERN-1       	;
 JUNCTION-263    	45.0        	0           	PATTERN-1       	;
 JUNCTION-264    	50.0        	0           	PATTERN-1       	;
 JUNCTION-265    	51.119385999999999	0           	PATTERN-1       	;
 JUNCTION-266    	45.225866000000003	0.703240    	PATTERN-1       	;
 JUNCTION-267    	35.0        	6.450760    	PATTERN-1       	;
 JUNCTION-268    	37.689577999999997	0.865310    	PATTERN-1       	;
 JUNCTION-269    	50.0        	1.300710    	PATTERN-1       	;
 JUNCTION-270    	32.548167999999997	2.196130    	PATTERN-1       	;
 JUNCTION-271    	49.509115999999999	0           	PATTERN-1       	;
 JUNCTION-272    	40.0        	13.241840   	PATTERN-1       	;
 JUNCTION-273    	34.261912000000002	3.071200    	PATTERN-1       	;
 JUNCTION-274    	39.705196999999998	1.444410    	PATTERN-1       	;
 JUNCTION-275    	35.0        	0.634410    	PATTERN-1       	;
 JUNCTION-276    	38.715071999999999	1.544160    	PATTERN-1       	;
 JUNCTION-277    	35.929264000000003	1.703070    	PATTERN-1       	;
 JUNCTION-278    	35.0        	3.795430    	PATTERN-1       	;
 JUNCTION-280    	50.0        	0.901410    	PATTERN-1       	;
 JUNCTION-291    	47.136648000000001	0.576450    	PATTERN-1       	;
 JUNCTION-302    	48.567908000000003	1.174510    	PATTERN-1       	;
 JUNCTION-313    	71.156729999999996	0.370160    	PATTERN-1       	;
 JUNCTION-324    	64.961079999999995	0.992990    	PATTERN-1       	;
 JUNCTION-335    	65.0        	0.143070    	PATTERN-1       	;
 JUNCTION-336    	95.0        	1.118920    	PATTERN-1       	;
 JUNCTION-339    	47.5        	0.081680    	PATTERN-1       	;
 JUNCTION-347    	100.0       	1.441910    	PATTERN-1       	;
 JUNCTION-358    	73.472775999999996	2.755860    	PATTERN-1       	;
 JUNCTION-369    	81.551710999999997	0.460070    	PATTERN-1       	;
 JUNCTION-375    	41.809021000000001	7.722380    	PATTERN-1       	;
 JUNCTION-376    	45.0        	3.435000    	PATTERN-1       	;
 JUNCTION-377    	41.964334000000001	1.036850    	PATTERN-1       	;
 JUNCTION-378    	40.0        	0.870520    	PATTERN-1       	;
 JUNCTION-379    	40.0        	4.066870    	PATTERN-1       	;
 JUNCTION-380    	81.840906000000004	0.487560    	PATTERN-1       	;
 JUNCTION-381    	38.457588999999999	1.024040    	PATTERN-1       	;
 JUNCTION-382    	34.040495999999997	2.858600    	PATTERN-1       	;
 JUNCTION-383    	37.348720999999998	1.534440    	PATTERN-1       	;
 JUNCTION-384    	33.789585000000002	3.564060    	PATTERN-1       	;
 JUNCTION-385    	34.596729000000003	1.449860    	PATTERN-1       	;
 JUNCTION-386    	44.460251   	2.704830    	PATTERN-1       	;
 JUNCTION-387    	32.662940999999996	0           	PATTERN-1       	;
 JUNCTION-388    	32.786766999999998	0.783770    	PATTERN-1       	;
 JUNCTION-389    	40.352487000000004	0.767310    	PATTERN-1       	;
 JUNCTION-390    	32.908124999999998	0.787180    	PATTERN-1       	;
 JUNCTION-391    	87.016756999999998	1.509810    	PATTERN-1       	;
 JUNCTION-392    	44.469638000000003	1.164670    	PATTERN-1       	;
 JUNCTION-393    	36.986203000000003	1.371750    	PATTERN-1       	;
 JUNCTION-394    	33.242145999999998	6.999930    	PATTERN-1       	;
 JUNCTION-395    	44.201676999999997	1.805060    	PATTERN-1       	;
 JUNCTION-396    	41.835585000000002	0.555450    	PATTERN-1       	;
 JUNCTION-397    	37.746124999999999	0.680280    	PATTERN-1       	;
 JUNCTION-398    	45.0        	0.804380    	PATTERN-1       	;
 JUNCTION-399    	52.354801999999999	1.222550    	PATTERN-1       	;
 JUNCTION-400    	55.502384999999997	0.490300    	PATTERN-1       	;
 JUNCTION-401    	45.0        	0.494390    	PATTERN-1       	;
 JUNCTION-402    	78.991783999999996	1.026190    	PATTERN-1       	;
 JUNCTION-403    	45.0        	0.185530    	PATTERN-1       	;
 JUNCTION-404    	35.0        	0.924010    	PATTERN-1       	;
 JUNCTION-405    	35.0        	0.545320    	PATTERN-1       	;
 JUNCTION-406    	40.0        	0.478260    	PATTERN-1       	;
 JUNCTION-407    	37.5        	0.309990    	PATTERN-1       	;
 JUNCTION-408    	41.600549000000001	0.572750    	PATTERN-1       	;
 JUNCTION-409    	39.166733000000001	0.443700    	PATTERN-1       	;
 JUNCTION-410    	37.322887999999999	1.321800    	PATTERN-1       	;
 JUNCTION-411    	35.0        	0.195910    	PATTERN-1       	;
 JUNCTION-412    	44.159025   	1.948370    	PATTERN-1       	;
 JUNCTION-413    	79.860760999999997	2.811280    	PATTERN-1       	;
 JUNCTION-414    	50.0        	0.280700    	PATTERN-1       	;
 JUNCTION-415    	56.088662999999997	0.375330    	PATTERN-1       	;
 JUNCTION-416    	42.199595000000002	1.115490    	PATTERN-1       	;
 JUNCTION-417    	45.0        	1.094860    	PATTERN-1       	;
 JUNCTION-418    	55.542738   	0.601300    	PATTERN-1       	;
 JUNCTION-419    	54.818994000000004	0           	PATTERN-1       	;
 JUNCTION-420    	52.598548000000001	1.905440    	PATTERN-1       	;
 JUNCTION-421    	45.696733000000002	0.649750    	PATTERN-1       	;
 JUNCTION-422    	48.846612   	0.752080    	PATTERN-1       	;
 JUNCTION-423    	52.607726999999997	1.682920    	PATTERN-1       	;
 JUNCTION-424    	73.142437000000001	2.668960    	PATTERN-1       	;
 JUNCTION-425    	51.585819000000001	1.863430    	PATTERN-1       	;
 JUNCTION-426    	56.098652999999999	1.532640    	PATTERN-1       	;
 JUNCTION-427    	48.309911   	0.120580    	PATTERN-1       	;
 JUNCTION-428    	45.691603999999998	3.138790    	PATTERN-1       	;
 JUNCTION-429    	45.620538000000003	1.441140    	PATTERN-1       	;
 JUNCTION-430    	42.292445000000001	0.630080    	PATTERN-1       	;
 JUNCTION-431    	50.723495   	0.578910    	PATTERN-1       	;
 JUNCTION-432    	47.478225000000002	0.290250    	PATTERN-1       	;
 JUNCTION-433    	37.5        	1.576050    	PATTERN-1       	;
 JUNCTION-434    	37.749623   	2.112560    	PATTERN-1       	;
 JUNCTION-435    	66.699707000000004	0.932440    	PATTERN-1       	;
 JUNCTION-436    	40.132537999999997	1.099450    	PATTERN-1       	;
 JUNCTION-437    	35.0        	1.161990    	PATTERN-1       	;
 JUNCTION-438    	42.5        	1.423090    	PATTERN-1       	;
 JUNCTION-439    	39.893076000000001	1.571610    	PATTERN-1       	;
 JUNCTION-440    	45.0        	0.417920    	PATTERN-1       	;
 JUNCTION-441    	44.354261999999999	0.663010    	PATTERN-1       	;
 JUNCTION-442    	37.279566000000003	0.851820    	PATTERN-1       	;
 JUNCTION-443    	40.678230999999997	1.102550    	PATTERN-1       	;
 JUNCTION-444    	48.736024999999998	0.176320    	PATTERN-1       	;
 JUNCTION-445    	47.5        	0.643620    	PATTERN-1       	;
 JUNCTION-446    	72.480215999999999	1.131550    	PATTERN-1       	;
 JUNCTION-447    	71.291101999999995	1.941170    	PATTERN-1       	;
 JUNCTION-448    	45.0        	0.126510    	PATTERN-1       	;
 JUNCTION-449    	41.490349999999999	0.338590    	PATTERN-1       	;
 JUNCTION-450    	48.187683999999997	0.860720    	PATTERN-1       	;
 JUNCTION-451    	48.278353000000003	0.332810    	PATTERN-1       	;
 JUNCTION-452    	47.845534000000001	0.525900    	PATTERN-1       	;
 JUNCTION-453    	56.527929999999998	0.359570    	PATTERN-1       	;
 JUNCTION-454    	56.751984   	0.337640    	PATTERN-1       	;
 JUNCTION-455    	54.319282999999999	1.034620    	PATTERN-1       	;
 JUNCTION-456    	57.763812000000001	3.827960    	PATTERN-1       	;
 JUNCTION-457    	63.600127000000001	0.739480    	PATTERN-1       	;
 JUNCTION-458    	82.312965000000005	0           	PATTERN-1       	;
 JUNCTION-459    	49.198774999999998	2.115020    	PATTERN-1       	;
 JUNCTION-460    	66.496288000000007	1.854810    	PATTERN-1       	;
 JUNCTION-461    	67.355739   	0.441660    	PATTERN-1       	;
 JUNCTION-462    	70.0        	5.197770    	PATTERN-1       	;
 JUNCTION-463    	65.0        	1.523930    	PATTERN-1       	;
 JUNCTION-464    	70.0        	3.421220    	PATTERN-1       	;
 JUNCTION-465    	61.196046000000003	2.001830    	PATTERN-1       	;
 JUNCTION-466    	52.129823000000002	1.168280    	PATTERN-1       	;
 JUNCTION-467    	43.158535000000001	1.427940    	PATTERN-1       	;
 JUNCTION-468    	71.500459000000006	0.618390    	PATTERN-1       	;
 JUNCTION-469    	66.322188999999995	0.545860    	PATTERN-1       	;
 JUNCTION-470    	72.807824999999994	0.370960    	PATTERN-1       	;
 JUNCTION-471    	75.0        	0.214710    	PATTERN-1       	;
 JUNCTION-472    	75.0        	0.469710    	PATTERN-1       	;
 JUNCTION-473    	74.719824000000003	0.070600    	PATTERN-1       	;
 JUNCTION-474    	72.796231000000006	1.841940    	PATTERN-1       	;
 JUNCTION-475    	80.0        	0.474250    	PATTERN-1       	;
 JUNCTION-476    	76.490634   	0           	PATTERN-1       	;
 JUNCTION-477    	80.0        	0.385510    	PATTERN-1       	;
 JUNCTION-478    	77.360945000000001	0           	PATTERN-1       	;
 JUNCTION-479    	78.661936999999995	2.834500    	PATTERN-1       	;
 JUNCTION-480    	73.182068999999998	2.896830    	PATTERN-1       	;
 JUNCTION-481    	77.295112000000003	0.418050    	PATTERN-1       	;
 JUNCTION-482    	81.049656999999996	0.645280    	PATTERN-1       	;
 JUNCTION-483    	65.0        	0.499850    	PATTERN-1       	;
 JUNCTION-484    	65.0        	0.466750    	PATTERN-1       	;
 JUNCTION-485    	65.0        	2.467510    	PATTERN-1       	;
 JUNCTION-486    	71.009113999999997	1.774060    	PATTERN-1       	;
 JUNCTION-487    	67.096354000000005	2.885050    	PATTERN-1       	;
 JUNCTION-488    	65.0        	1.074590    	PATTERN-1       	;
 JUNCTION-489    	74.499644000000004	0.440450    	PATTERN-1       	;
 JUNCTION-490    	47.649957000000001	0.500510    	PATTERN-1       	;
 JUNCTION-491    	56.530011000000002	0.386050    	PATTERN-1       	;
 JUNCTION-492    	68.632751999999996	0.890910    	PATTERN-1       	;
 JUNCTION-493    	64.524360000000001	0.790500    	PATTERN-1       	;
 JUNCTION-494    	54.890636000000001	1.985420    	PATTERN-1       	;
 JUNCTION-495    	54.842838999999998	1.517660    	PATTERN-1       	;
 JUNCTION-496    	59.804217999999999	1.891740    	PATTERN-1       	;
 JUNCTION-497    	57.640239999999999	1.786350    	PATTERN-1       	;
 JUNCTION-498    	57.916784999999997	0.747640    	PATTERN-1       	;
 JUNCTION-499    	63.309517999999997	4.162110    	PATTERN-1       	;
 JUNCTION-500    	62.400843999999999	0.291630    	PATTERN-1       	;
 JUNCTION-501    	61.732655999999999	0.869280    	PATTERN-1       	;
 JUNCTION-502    	56.937724000000003	1.075180    	PATTERN-1       	;
 JUNCTION-503    	57.399594999999998	2.000010    	PATTERN-1       	;
 JUNCTION-504    	58.238878   	0.510520    	PATTERN-1       	;
 JUNCTION-505    	62.933737999999998	0           	PATTERN-1       	;
 JUNCTION-506    	68.306174999999996	4.216600    	PATTERN-1       	;
 JUNCTION-513    	52.968527000000002	0.065440    	PATTERN-1       	;
 JUNCTION-517    	85.0        	1.717490    	PATTERN-1       	;
 JUNCTION-518    	95.0        	0.889160    	PATTERN-1       	;
 JUNCTION-519    	97.302679999999995	0.079370    	PATTERN-1       	;
 JUNCTION-520    	97.310885999999996	0.366590    	PATTERN-1       	;
 JUNCTION-521    	77.5        	0           	PATTERN-1       	;
 JUNCTION-522    	78.01088    	2.658740    	PATTERN-1       	;
 JUNCTION-523    	77.5        	0.965240    	PATTERN-1       	;
 JUNCTION-524    	52.910451000000002	1.373990    	PATTERN-1       	;
 JUNCTION-525    	77.5        	0           	PATTERN-1       	;
 JUNCTION-526    	81.668890000000005	0.202320    	PATTERN-1       	;
 JUNCTION-527    	65.0        	0.175870    	PATTERN-1       	;
 JUNCTION-528    	65.0        	0.763840    	PATTERN-1       	;
 JUNCTION-529    	70.0        	0.458460    	PATTERN-1       	;
 JUNCTION-530    	70.240841000000003	0.297020    	PATTERN-1       	;
 JUNCTION-531    	63.190646000000001	0.413360    	PATTERN-1       	;
 JUNCTION-532    	92.5        	52.164820   	PATTERN-1       	;
 JUNCTION-533    	67.946421999999998	0.715480    	PATTERN-1       	;
 JUNCTION-534    	70.0        	0.716700    	PATTERN-1       	;
 JUNCTION-535    	71.539072000000004	1.947640    	PATTERN-1       	;
 JUNCTION-536    	75.056419000000005	1.627290    	PATTERN-1       	;
 JUNCTION-537    	77.986959999999996	0.437470    	PATTERN-1       	;
 JUNCTION-538    	73.075477000000006	0.922320    	PATTERN-1       	;
 JUNCTION-539    	75.728582000000003	1.078940    	PATTERN-1       	;
 JUNCTION-546    	50.826754000000001	0.620490    	PATTERN-1       	;
 JUNCTION-557    	92.576942000000003	6.234480    	PATTERN-1       	;
 JUNCTION-558    	52.175331   	0           	PATTERN-1       	;
 JUNCTION-569    	54.284424999999999	1.337750    	PATTERN-1       	;
 JUNCTION-572    	83.424415999999994	0.485510    	PATTERN-1       	;
 JUNCTION-579    	72.334248000000002	15.958650   	PATTERN-1       	;
 JUNCTION-580    	58.759498000000001	2.966350    	PATTERN-1       	;
 JUNCTION-581    	70.0        	1.366340    	PATTERN-1       	;
 JUNCTION-582    	71.916482999999999	0.762390    	PATTERN-1       	;
 JUNCTION-583    	77.288717000000005	0.203820    	PATTERN-1       	;
 JUNCTION-584    	76.211982000000006	0.263350    	PATTERN-1       	;
 JUNCTION-585    	79.149405000000002	0           	PATTERN-1       	;
 JUNCTION-586    	80.575402999999994	0.255730    	PATTERN-1       	;
 JUNCTION-587    	82.5        	0.445540    	PATTERN-1       	;
 JUNCTION-588    	68.336872   	0.377700    	PATTERN-1       	;
 JUNCTION-589    	62.506270000000001	0.715170    	PATTERN-1       	;
 JUNCTION-590    	62.473588999999997	0.303930    	PATTERN-1       	;
 JUNCTION-591    	59.408203   	1.145670    	PATTERN-1       	;
 JUNCTION-592    	64.811350000000004	4.647820    	PATTERN-1       	;
 JUNCTION-593    	49.226216999999998	0.706310    	PATTERN-1       	;
 JUNCTION-594    	50.0        	0.248620    	PATTERN-1       	;
 JUNCTION-595    	74.124628999999999	0.613570    	PATTERN-1       	;
 JUNCTION-596    	75.119636   	0.711280    	PATTERN-1       	;
 JUNCTION-597    	72.067113000000006	1.164330    	PATTERN-1       	;
 JUNCTION-598    	72.5        	0.743910    	PATTERN-1       	;
 JUNCTION-599    	53.694519   	1.063200    	PATTERN-1       	;
 JUNCTION-600    	63.283771999999999	1.614970    	PATTERN-1       	;
 JUNCTION-601    	52.509521999999997	0.657770    	PATTERN-1       	;
 JUNCTION-602    	53.193916999999999	0           	PATTERN-1       	;
 JUNCTION-603    	67.367901000000003	0.318660    	PATTERN-1       	;
 JUNCTION-604    	75.446218000000002	0.459360    	PATTERN-1       	;
 JUNCTION-605    	67.854392000000004	1.359120    	PATTERN-1       	;
 JUNCTION-606    	71.947637999999998	1.019110    	PATTERN-1       	;
 JUNCTION-607    	78.238994000000005	1.109310    	PATTERN-1       	;
 JUNCTION-608    	70.0        	0.784570    	PATTERN-1       	;
 JUNCTION-613    	53.789411000000001	1.795040    	PATTERN-1       	;
 JUNCTION-624    	50.602625000000003	0.274020    	PATTERN-1       	;
 JUNCTION-628    	70.0        	0           	PATTERN-1       	;
 JUNCTION-629    	70.0        	0           	PATTERN-1       	;
 JUNCTION-630    	70.0        	0           	PATTERN-1       	;
 JUNCTION-631    	65.0        	0.144070    	PATTERN-1       	;
 JUNCTION-632    	70.604546999999997	0           	PATTERN-1       	;
 JUNCTION-633    	70.423945000000003	0.791850    	PATTERN-1       	;
 JUNCTION-634    	67.248614000000003	0.806890    	PATTERN-1       	;
 JUNCTION-635    	58.389141000000002	1.654200    	PATTERN-1       	;
 JUNCTION-636    	81.925780000000003	0.878440    	PATTERN-1       	;
 JUNCTION-637    	62.737138999999999	0           	PATTERN-1       	;
 JUNCTION-638    	54.785564999999998	0.383000    	PATTERN-1       	;
 JUNCTION-641    	77.397396999999998	0.612970    	PATTERN-1       	;
 JUNCTION-642    	75.761723000000003	0.515870    	PATTERN-1       	;
 JUNCTION-643    	75.0        	0.111540    	PATTERN-1       	;
 JUNCTION-644    	78.336771999999996	2.013580    	PATTERN-1       	;
 JUNCTION-645    	118.489824  	0.742020    	PATTERN-1       	;
 JUNCTION-646    	78.429068000000001	1.521310    	PATTERN-1       	;
 JUNCTION-647    	100.345474  	1.224140    	PATTERN-1       	;
 JUNCTION-648    	76.997444000000002	0.790540    	PATTERN-1       	;
 JUNCTION-649    	72.880826999999996	0           	PATTERN-1       	;
 JUNCTION-650    	75.0        	1.822600    	PATTERN-1       	;
 JUNCTION-651    	75.959968000000003	0           	PATTERN-1       	;
 JUNCTION-652    	76.440006999999994	0.651880    	PATTERN-1       	;
 JUNCTION-653    	78.263152000000005	2.596640    	PATTERN-1       	;
 JUNCTION-654    	60.0        	0           	PATTERN-1       	;
 JUNCTION-655    	58.771076999999998	0           	PATTERN-1       	;
 JUNCTION-656    	61.813369000000002	0           	PATTERN-1       	;
 JUNCTION-657    	72.5        	0.224370    	PATTERN-1       	;
 JUNCTION-658    	67.412863999999999	0.012000    	PATTERN-1       	;
 JUNCTION-659    	72.397171   	0.100260    	PATTERN-1       	;
 JUNCTION-660    	72.100493999999998	0.112930    	PATTERN-1       	;
 JUNCTION-661    	75.782257000000001	0.397730    	PATTERN-1       	;
 JUNCTION-662    	80.0        	0.427550    	PATTERN-1       	;
 JUNCTION-663    	62.639422000000003	1.101780    	PATTERN-1       	;
 JUNCTION-664    	65.182288   	1.776430    	PATTERN-1       	;
 JUNCTION-665    	55.0        	1.546370    	PATTERN-1       	;
 JUNCTION-666    	57.5        	3.315000    	PATTERN-1       	;
 JUNCTION-667    	68.334434999999999	3.438700    	PATTERN-1       	;
 JUNCTION-668    	79.997213000000002	0.921820    	PATTERN-1       	;
 JUNCTION-669    	59.249704000000001	0.667540    	PATTERN-1       	;
 JUNCTION-670    	55.0        	1.101140    	PATTERN-1       	;
 JUNCTION-671    	70.318343999999996	0.675180    	PATTERN-1       	;
 JUNCTION-672    	67.5        	1.749040    	PATTERN-1       	;
 JUNCTION-673    	71.319548999999995	0           	PATTERN-1       	;
 JUNCTION-674    	55.921719000000003	2.961210    	PATTERN-1       	;
 JUNCTION-675    	61.389533   	1.580290    	PATTERN-1       	;
 JUNCTION-676    	78.404709999999994	4.037340    	PATTERN-1       	;
 JUNCTION-677    	72.777399000000003	0           	PATTERN-1       	;
 JUNCTION-678    	64.373070999999996	2.561780    	PATTERN-1       	;
 JUNCTION-679    	72.5        	1.062010    	PATTERN-1       	;
 JUNCTION-680    	69.676676   	0           	PATTERN-1       	;
 JUNCTION-681    	77.457928999999993	0           	PATTERN-1       	;
 JUNCTION-682    	72.611463000000001	0           	PATTERN-1       	;
 JUNCTION-683    	72.935575   	0.039180    	PATTERN-1       	;
 JUNCTION-684    	70.0        	0.182730    	PATTERN-1       	;
 JUNCTION-685    	70.0        	0.800410    	PATTERN-1       	;
 JUNCTION-686    	70.0        	1.032950    	PATTERN-1       	;
 JUNCTION-687    	68.468292000000005	2.194750    	PATTERN-1       	;
 JUNCTION-688    	69.027674000000005	1.625980    	PATTERN-1       	;
 JUNCTION-689    	63.705773999999998	0.395020    	PATTERN-1       	;
 JUNCTION-690    	61.198332000000001	2.700390    	PATTERN-1       	;
 JUNCTION-691    	67.503534000000002	0.636420    	PATTERN-1       	;
 JUNCTION-692    	60.0        	0.477390    	PATTERN-1       	;
 JUNCTION-693    	47.5        	1.069020    	PATTERN-1       	;