[TITLE]


[JUNCTIONS]
;ID              	Elev        	Demand      	Pattern         
 J-1             	1002.97     	0.92        	1               	;
 J-10            	979.6668    	0.52        	1               	;
 J-100           	956.1092    	0.36        	1               	;
 J-1000          	972.1188    	0.54        	1               	;
 J-1001          	967.6031    	0.65        	1               	;
 J-1002          	933.9637    	0.5         	1               	;
 J-1003          	983.7909    	1.12        	1               	;
 J-1004          	960.6658    	2.61        	1               	;
 J-1005          	973.2756    	0.15        	1               	;
 J-1006          	993.1291    	1.26        	1               	;
 J-1007          	1002.363    	0.23        	1               	;
 J-1008          	979.3283    	0           	                	;
 J-1009          	942.0645    	1.94        	1               	;
 J-101           	976.5272    	0.62        	1               	;
 J-1010          	965.811     	0.96        	1               	;
 J-1011          	1002.574    	1.47        	1               	;
 J-1012          	920.1646    	1.09        	1               	;
 J-1013          	916.79      	3.18        	1               	;
 J-1014          	952.9443    	0.82        	1               	;
 J-1015          	958.774     	0.55        	1               	;
 J-1016          	999.0527    	0.54        	1               	;
 J-1017          	951.9656    	9.13        	1               	;
 J-1018          	1001.102    	1.56        	1               	;
 J-1019          	983.708     	0.73        	1               	;
 J-102           	992.2281    	1.66        	1               	;
 J-1020          	971.7684    	1.98        	1               	;
 J-1021          	982.0586    	0.88        	1               	;
 J-1022          	997.4865    	0.89        	1               	;
 J-1023          	994.5577    	0.97        	1               	;
 J-1024          	946.5315    	0.27        	1               	;
 J-1025          	959.2247    	1.06        	1               	;
 J-1026          	949.9792    	0.53        	1               	;
 J-1027          	960.2643    	1.51        	1               	;
 J-1028          	981.3967    	0.61        	1               	;
 J-1029          	916.7931    	0.82        	1               	;
 J-103           	1012.923    	2.11        	1               	;
 J-1030          	913.7842    	0.21        	1               	;
 J-1031          	949.2464    	2.27        	1               	;
 J-1032          	924.4985    	0.84        	1               	;
 J-1033          	988.0477    	1.34        	1               	;
 J-1034          	1026.652    	0.29        	1               	;
 J-1035          	958.2108    	2.33        	1               	;
 J-1036          	977.0811    	2.11        	1               	;
 J-1037          	946.2034    	1.81        	1               	;
 J-1038          	987.3462    	1.19        	1               	;
 J-1039          	937.6068    	0.57        	1               	;
 J-104           	971.9023    	1.87        	1               	;
 J-1040          	920.8923    	2.16        	1               	;
 J-1041          	967.1247    	0.3         	1               	;
 J-1042          	942.6869    	0.67        	1               	;
 J-1043          	985.2496    	0.41        	1               	;
 J-1044          	978.2369    	0.48        	1               	;
 J-1045          	934.0785    	1.27        	1               	;
 J-1046          	975.2743    	2.57        	1               	;
 J-1047          	964.8017    	1.64        	1               	;
 J-1048          	1005.377    	0.71        	1               	;
 J-1049          	956.8696    	0.91        	1               	;
 J-105           	991.9036    	1.34        	1               	;
 J-1050          	978.6112    	0.72        	1               	;
 J-1051          	1014.904    	1.73        	1               	;
 J-1052          	996.6636    	2.02        	1               	;
 J-1053          	1004.388    	1.14        	1               	;
 J-1054          	931.2023    	0.36        	1               	;
 J-1055          	925.3909    	2.24        	1               	;
 J-1056          	953.7402    	2.59        	1               	;
 J-1057          	941.5421    	0.74        	1               	;
 J-1058          	973.5477    	2.18        	1               	;
 J-1059          	964.7429    	0.98        	1               	;
 J-106           	960.975     	0.9         	1               	;
 J-1060          	1003.865    	0.91        	1               	;
 J-1061          	1041.395    	0.41        	1               	;
 J-1062          	974.0029    	0.92        	1               	;
 J-1063          	975.1185    	2.2         	1               	;
 J-1064          	989.343     	0.55        	1               	;
 J-1065          	997.9887    	1.11        	1               	;
 J-1066          	939.9678    	1.2         	1               	;
 J-1067          	906.6779    	0.95        	1               	;
 J-1068          	918.0988    	0.29        	1               	;
 J-1069          	1015.903    	0.75        	1               	;
 J-107           	1001.26     	2.7         	1               	;
 J-1070          	1018.251    	1.44        	1               	;
 J-1071          	986.2827    	1.24        	1               	;
 J-1072          	963.1724    	1.85        	1               	;
 J-1073          	994.2034    	0.42        	1               	;
 J-1074          	1032.685    	1.76        	1               	;
 J-1075          	995.5018    	1.54        	1               	;
 J-1076          	1005.211    	1.22        	1               	;
 J-1077          	975.1523    	1.34        	1               	;
 J-1078          	931.0073    	3.76        	1               	;
 J-1079          	986.9286    	2.46        	1               	;
 J-108           	990.5401    	1.84        	1               	;
 J-1080          	956.6635    	1.72        	1               	;
 J-1081          	944.1874    	1.17        	1               	;
 J-1082          	958.9731    	1.51        	1               	;
 J-1083          	930.3757    	0.96        	1               	;
 J-1084          	957.0897    	0           	                	;
 J-1085          	1001.349    	0.11        	1               	;
 J-1086          	970.9494    	1.54        	1               	;
 J-1087          	1007.023    	1.11        	1               	;
 J-1088          	1017.023    	1.57        	1               	;
 J-1089          	980.9498    	0.43        	1               	;
 J-109           	998.2533    	1.72        	1               	;
 J-1090          	980.9944    	0.46        	1               	;
 J-1091          	1005.156    	0.94        	1               	;
 J-1092          	925.438     	1.64        	1               	;
 J-1093          	941.1719    	0.35        	1               	;
 J-1094          	950.7923    	0.88        	1               	;
 J-1095          	1030.107    	0.55        	1               	;
 J-1096          	963.2252    	0.46        	1               	;
 J-1097          	953.9495    	0.23        	1               	;
 J-1098          	999.4023    	1.5         	1               	;
 J-1099          	957.4346    	0.13        	1               	;
 J-11            	973.3596    	3.84        	1               	;
 J-110           	990.6684    	0.76        	1               	;
 J-1100          	950.3278    	1.02        	1               	;
 J-1101          	926.8498    	1.26        	1               	;
 J-1102          	1004.619    	0.49        	1               	;
 J-1103          	1004.232    	1.22        	1               	;
 J-1104          	989.4683    	0.24        	1               	;
 J-1105          	980.8552    	0.37        	1               	;
 J-1106          	958.511     	0.43        	1               	;
 J-1107          	956.5433    	0.3         	1               	;
 J-1108          	1004.519    	2.26        	1               	;
 J-1109          	1009.795    	1.57        	1               	;
 J-111           	991.2919    	0.11        	1               	;
 J-1110          	966.8722    	0.68        	1               	;
 J-1111          	950.9268    	0.46        	1               	;
 J-1112          	988.2986    	0.64        	1               	;
 J-1113          	1001.364    	0.46        	1               	;
 J-1114          	1014.788    	0.96        	1               	;
 J-1115          	964.4872    	0.35        	1               	;
 J-1116          	991.4536    	1.35        	1               	;
 J-1117          	990.4918    	0.73        	1               	;
 J-1118          	997.3438    	0.46        	1               	;
 J-1119          	970.6922    	2.17        	1               	;
 J-112           	974.1344    	2.6         	1               	;
 J-1120          	1017.843    	1.74        	1               	;
 J-1121          	961.7057    	0.74        	1               	;
 J-1122          	944.0974    	1.88        	1               	;
 J-1123          	964.3712    	0.59        	1               	;
 J-1124          	954.4607    	0.48        	1               	;
 J-1125          	957.1547    	0           	                	;
 J-1126          	1004.498    	0.91        	1               	;
 J-1127          	999.8121    	0.7         	1               	;
 J-1128          	956.3874    	1.96        	1               	;
 J-1129          	982.9026    	1.17        	1               	;
 J-113           	927.1782    	1.13        	1               	;
 J-1130          	985.4974    	0.2         	1               	;
 J-1131          	938.6133    	0.52        	1               	;
 J-1132          	950.8669    	2.67        	1               	;
 J-1133          	967.3861    	0.49        	1               	;
 J-1134          	1000.276    	0.44        	1               	;
 J-1135          	989.1021    	0.19        	1               	;
 J-1136          	995.6379    	1.01        	1               	;
 J-1137          	975.0519    	1.6         	1               	;
 J-1138          	991.8292    	0.88        	1               	;
 J-1139          	983.3718    	1.18        	1               	;
 J-114           	948.9658    	2.5         	1               	;
 J-1140          	980.1962    	3.45        	1               	;
 J-1141          	968.5593    	0           	                	;
 J-1142          	983.3204    	0.63        	1               	;
 J-1143          	997.9429    	1           	1               	;
 J-1144          	983.7407    	0.1         	1               	;
 J-1145          	979.3095    	0           	                	;
 J-1146          	937.1878    	0.47        	1               	;
 J-1147          	961.5646    	0.9         	1               	;
 J-1148          	978.7356    	1.06        	1               	;
 J-1149          	967.9286    	0.19        	1               	;
 J-115           	927.1988    	0.61        	1               	;
 J-1150          	966.0347    	0.16        	1               	;
 J-1151          	979.8522    	0.65        	1               	;
 J-1152          	930.217     	1.32        	1               	;
 J-1153          	978.4308    	0.54        	1               	;
 J-1154          	1013.992    	0.11        	1               	;
 J-1155          	949.6728    	1.85        	1               	;
 J-1156          	970.405     	0.57        	1               	;
 J-1157          	999.6797    	1.52        	1               	;
 J-1158          	965.3118    	3.32        	1               	;
 J-1159          	986.0013    	0.38        	1               	;
 J-116           	962.9157    	0.86        	1               	;
 J-1160          	1000.36     	0.42        	1               	;
 J-1161          	989.2116    	2.46        	1               	;
 J-1162          	995.0939    	0.26        	1               	;
 J-1163          	978.9081    	0           	                	;
 J-1164          	979.2819    	2.48        	1               	;
 J-1165          	970.2353    	1.15        	1               	;
 J-1166          	953.3029    	0.65        	1               	;
 J-1167          	1039.661    	1.86        	1               	;
 J-1168          	1018.919    	1.4         	1               	;
 J-1169          	1038.958    	0.39        	1               	;
 J-117           	1007.435    	0.69        	1               	;
 J-1170          	976.4023    	1.19        	1               	;
 J-1171          	969.3887    	0.52        	1               	;
 J-1172          	938.2195    	1.02        	1               	;
 J-1173          	1004.012    	0.12        	1               	;
 J-1174          	949.3094    	0.31        	1               	;
 J-1175          	949.6328    	0.31        	1               	;
 J-1176          	970.5121    	0.11        	1               	;
 J-1177          	1001.508    	0.97        	1               	;
 J-1178          	1018.563    	0.84        	1               	;
 J-1179          	957.4712    	0.41        	1               	;
 J-118           	935.8173    	0.41        	1               	;
 J-1180          	1007.691    	1.14        	1               	;
 J-1181          	949.7055    	0.23        	1               	;
 J-1182          	992.4955    	0.28        	1               	;
 J-1183          	989.4885    	0.64        	1               	;
 J-1184          	995.3223    	0.29        	1               	;
 J-1185          	955.5746    	0.92        	1               	;
 J-1186          	965.1296    	0.54        	1               	;
 J-1187          	982.5637    	0.31        	1               	;
 J-1188          	943.3073    	0.36        	1               	;
 J-1189          	951.1948    	0.19        	1               	;
 J-119           	929.3659    	1.19        	1               	;
 J-1190          	960.8735    	1.74        	1               	;
 J-1191          	977.3381    	4.26        	1               	;
 J-1192          	949.0704    	1.31        	1               	;
 J-1193          	966.6705    	1.21        	1               	;
 J-1194          	961.7446    	0.19        	1               	;
 J-1195          	958.9775    	1.71        	1               	;
 J-1196          	1012.89     	1.1         	1               	;
 J-1197          	1001.662    	1.12        	1               	;
 J-1198          	977.4802    	0.55        	1               	;
 J-1199          	944.6666    	1.32        	1               	;
 J-12            	985.2566    	1.48        	1               	;
 J-120           	980.2245    	6.29        	1               	;
 J-1200          	1006.13     	1.96        	1               	;
 J-1201          	1001.594    	0.52        	1               	;
 J-1202          	977.3764    	0           	                	;
 J-1203          	967.2025    	1.61        	1               	;
 J-1204          	956.3854    	0.85        	1               	;
 J-1205          	992.111     	1.42        	1               	;
 J-1206          	999.226     	0.65        	1               	;
 J-1207          	1021.866    	0.85        	1               	;
 J-1208          	976.0049    	1.33        	1               	;
 J-1209          	991.821     	0.97        	1               	;
 J-121           	955.6276    	4.7         	1               	;
 J-1210          	909.9061    	1.65        	1               	;
 J-1211          	910.0126    	3.17        	1               	;
 J-1212          	992.6047    	1.14        	1               	;
 J-1213          	983.9036    	0.47        	1               	;
 J-1214          	989.1268    	0.19        	1               	;
 J-1215          	961.8889    	0.4         	1               	;
 J-1216          	1005.927    	2.66        	1               	;
 J-1217          	941.2625    	0.1         	1               	;
 J-1218          	993.8394    	1.03        	1               	;
 J-1219          	1015.851    	0.9         	1               	;
 J-122           	994.5997    	1.81        	1               	;
 J-1220          	964.103     	0.09        	1               	;
 J-1221          	1043.403    	3.27        	1               	;
 J-1222          	978.7341    	2.4         	1               	;
 J-1223          	972.4727    	2.47        	1               	;
 J-1224          	979.4493    	0.34        	1               	;
 J-1225          	1013.163    	0.3         	1               	;
 J-1226          	1011.744    	1.06        	1               	;
 J-1227          	965.2044    	1.53        	1               	;
 J-1228          	1009.891    	1.03        	1               	;
 J-1229          	1033.968    	4.83        	1               	;
 J-123           	1003.278    	4.37        	1               	;
 J-1230          	1039.602    	1.49        	1               	;
 J-1231          	970.3848    	0.32        	1               	;
 J-1232          	993.6591    	0.82        	1               	;
 J-1233          	968.9734    	0.58        	1               	;
 J-1234          	970.6243    	1.38        	1               	;
 J-1235          	964.8383    	0.74        	1               	;
 J-1236          	992.5005    	0.23        	1               	;
 J-1237          	979.2516    	0.3         	1               	;
 J-1238          	992.2137    	0.43        	1               	;
 J-1239          	986.0309    	0.39        	1               	;
 J-124           	1001.206    	0.16        	1               	;
 J-1240          	967.4946    	0.13        	1               	;
 J-1241          	978.6226    	1.56        	1               	;
 J-1242          	1006.518    	1.67        	1               	;
 J-1243          	992.1884    	0.38        	1               	;
 J-1244          	1003.368    	0.78        	1               	;
 J-1245          	1002.847    	0.24        	1               	;
 J-1246          	981.4207    	2.67        	1               	;
 J-1247          	994.428     	0.84        	1               	;
 J-1248          	932.2193    	0.62        	1               	;
 J-1249          	925.4407    	2.1         	1               	;
 J-125           	1002.919    	2.74        	1               	;
 J-1250          	939.2913    	1.39        	1               	;
 J-1251          	953.8093    	2.01        	1               	;
 J-1252          	943.8216    	0.56        	1               	;
 J-1253          	978.0497    	1.55        	1               	;
 J-1254          	1001.56     	0.21        	1               	;
 J-1255          	985.8475    	0.75        	1               	;
 J-1256          	969.9594    	0.62        	1               	;
 J-1257          	990.3142    	0.75        	1               	;
 J-1258          	994.47      	0.11        	1               	;
 J-1259          	1014.191    	1.91        	1               	;
 J-126           	917.6212    	0.79        	1               	;
 J-1260          	996.5742    	1.73        	1               	;
 J-1261          	998.423     	1.17        	1               	;
 J-1262          	966.6713    	2.87        	1               	;
 J-1263          	987.5566    	0.41        	1               	;
 J-1264          	945.4722    	2.29        	1               	;
 J-1265          	957.0461    	0           	                	;
 J-1266          	988.6458    	0.76        	1               	;
 J-1267          	944.7103    	0.33        	1               	;
 J-1268          	934.9223    	0.69        	1               	;
 J-1269          	928.6105    	2.39        	1               	;
 J-127           	936.5127    	0.59        	1               	;
 J-1270          	901.2142    	2.94        	1               	;
 J-1271          	973.7873    	0           	                	;
 J-1272          	959.085     	1.02        	1               	;
 J-1273          	977.0593    	1.96        	1               	;
 J-1274          	1009.123    	0.14        	1               	;
 J-1275          	994.6277    	1.37        	1               	;
 J-1276          	962.9375    	1.14        	1               	;
 J-1277          	1002.207    	0.29        	1               	;
 J-1278          	1027.123    	0.72        	1               	;
 J-1279          	931.3522    	0.92        	1               	;
 J-128           	936.4592    	0.27        	1               	;
 J-1280          	931.4869    	0.45        	1               	;
 J-1281          	1041.412    	1.73        	1               	;
 J-1282          	927.709     	1.42        	1               	;
 J-1283          	948.1352    	0.33        	1               	;
 J-1284          	999.9688    	1.83        	1               	;
 J-1285          	1004.953    	2.07        	1               	;
 J-1286          	980.4718    	0.27        	1               	;
 J-1287          	953.7148    	0.24        	1               	;
 J-1288          	902.9759    	0.71        	1               	;
 J-1289          	996.6667    	1.42        	1               	;
 J-129           	1000.87     	0.33        	1               	;
 J-1290          	974.6605    	1.18        	1               	;
 J-1291          	911.873     	0.3         	1               	;
 J-1292          	989.557     	0.4         	1               	;
 J-1293          	970.0639    	1.13        	1               	;
 J-1294          	949.8943    	0.56        	1               	;
 J-1295          	1022.048    	0.68        	1               	;
 J-1296          	993.1304    	0.11        	1               	;
 J-1297          	945.2074    	0           	                	;
 J-1298          	981.4892    	0.09        	1               	;
 J-1299          	982.4128    	0           	                	;
 J-13            	919.0184    	2.3         	1               	;
 J-130           	927.6636    	0           	                	;
 J-1300          	977.2169    	0           	                	;
 J-1301          	972.1398    	0           	                	;
 J-1302          	947.4169    	1.14        	1               	;
 J-1303          	996.5115    	0           	                	;
 J-1304          	1003.69     	0           	                	;
 J-1305          	1014.321    	0           	                	;
 J-1306          	1015.541    	0           	                	;
 J-1307          	991.6318    	0           	                	;
 J-1308          	998.0964    	0           	                	;
 J-1309          	997.2444    	0           	                	;
 J-131           	926.4938    	0.4         	1               	;
 J-1310          	1014.29     	0           	                	;
 J-1311          	1015.865    	0           	                	;
 J-1312          	978.207     	0           	                	;
 J-1313          	1005.706    	0           	                	;
 J-1314          	948.9382    	0           	                	;
 J-1315          	957.6874    	0           	                	;
 J-1316          	998.4942    	0           	                	;
 J-1317          	923.0468    	0           	                	;
 J-1318          	928.759     	0           	                	;
 J-1319          	928.2106    	0           	                	;
 J-132           	1014.8      	2.03        	1               	;
 J-133           	959.243     	2.68        	1               	;
 J-134           	954.6754    	0.4         	1               	;
 J-135           	953.2007    	0.92        	1               	;
 J-136           	931.7145    	1.06        	1               	;
 J-137           	937.5491    	1.12        	1               	;
 J-138           	931.533     	1.01        	1               	;
 J-139           	927.8629    	0.42        	1               	;
 J-14            	939.3245    	1.4         	1               	;
 J-140           	955.7383    	0.99        	1               	;
 J-141           	897.3025    	2.94        	1               	;
 J-142           	952.1076    	1.86        	1               	;
 J-143           	967.6666    	3.21        	1               	;
 J-144           	952.8359    	2.5         	1               	;
 J-145           	905.4386    	0.92        	1               	;
 J-146           	968.6281    	0.5         	1               	;
 J-147           	997.1206    	0           	                	;
 J-148           	976.4983    	1.78        	1               	;
 J-149           	1001.515    	3.37        	1               	;
 J-15            	977.4283    	0.31        	1               	;
 J-150           	1004.53     	1.84        	1               	;
 J-151           	933.317     	1.79        	1               	;
 J-152           	998.0096    	2.23        	1               	;
 J-153           	987.4785    	1.68        	1               	;
 J-154           	999.7343    	3.62        	1               	;
 J-155           	981.0491    	1.38        	1               	;
 J-156           	1001.675    	0.5         	1               	;
 J-157           	989.6042    	0.69        	1               	;
 J-158           	993.04      	1.12        	1               	;
 J-159           	960.1518    	1.52        	1               	;
 J-16            	977.362     	0.44        	1               	;
 J-160           	961.972     	2.85        	1               	;
 J-161           	1014.701    	0.44        	1               	;
 J-162           	956.3618    	0.14        	1               	;
 J-163           	961.1016    	1.61        	1               	;
 J-164           	965.6511    	1.78        	1               	;
 J-165           	1026.669    	4.38        	1               	;
 J-166           	935.9556    	0.71        	1               	;
 J-167           	967.0713    	2.23        	1               	;
 J-168           	991.367     	1.59        	1               	;
 J-169           	984.3192    	2.55        	1               	;
 J-17            	977.73      	0.3         	1               	;
 J-170           	980.4084    	0.22        	1               	;
 J-171           	939.7405    	1.4         	1               	;
 J-172           	930.709     	1.3         	1               	;
 J-173           	938.5123    	1.51        	1               	;
 J-174           	999.4957    	1.43        	1               	;
 J-175           	1006.212    	0.93        	1               	;
 J-176           	1004.674    	1.51        	1               	;
 J-177           	992.1135    	1.98        	1               	;
 J-178           	1002.879    	1.56        	1               	;
 J-179           	1011.599    	1.05        	1               	;
 J-18            	943.7672    	1.07        	1               	;
 J-180           	976.9026    	3.75        	1               	;
 J-181           	967.264     	3.81        	1               	;
 J-182           	990.5605    	0.53        	1               	;
 J-183           	978.0695    	2.09        	1               	;
 J-184           	985.4453    	0.83        	1               	;
 J-185           	1004.841    	1.9         	1               	;
 J-186           	1010.685    	3.32        	1               	;
 J-187           	928.3279    	1.68        	1               	;
 J-188           	1007.316    	0.9         	1               	;
 J-189           	943.9777    	1.14        	1               	;
 J-19            	945.456     	2.57        	1               	;
 J-190           	926.4111    	2.55        	1               	;
 J-191           	959.9783    	2.17        	1               	;
 J-192           	953.6035    	1.05        	1               	;
 J-193           	980.7574    	2.16        	1               	;
 J-194           	1002.097    	1.66        	1               	;
 J-195           	1009.874    	1.26        	1               	;
 J-196           	976.8041    	0.14        	1               	;
 J-197           	977.5991    	0.09        	1               	;
 J-198           	1006.678    	0           	                	;
 J-199           	994.218     	2.67        	1               	;
 J-2             	1013.444    	1.63        	1               	;
 J-20            	935.2312    	2.93        	1               	;
 J-200           	973.318     	1.45        	1               	;
 J-201           	1010.833    	0           	                	;
 J-202           	1045.841    	0           	                	;
 J-203           	956.3765    	1.39        	1               	;
 J-204           	922.4658    	0.35        	1               	;
 J-205           	934.4752    	0.92        	1               	;
 J-206           	959.4948    	1.5         	1               	;
 J-207           	949.7066    	1.58        	1               	;
 J-208           	984.7419    	0.75        	1               	;
 J-209           	982.9194    	1.2         	1               	;
 J-21            	956.0571    	2.69        	1               	;
 J-210           	945.6422    	0.89        	1               	;
 J-211           	995.9433    	0.33        	1               	;
 J-212           	951.63      	0.53        	1               	;
 J-213           	955.4329    	0.33        	1               	;
 J-214           	1006.421    	1.63        	1               	;
 J-215           	988.3768    	1.41        	1               	;
 J-216           	940.704     	0.26        	1               	;
 J-217           	971.3254    	0.62        	1               	;
 J-218           	967.2204    	1.08        	1               	;
 J-219           	924.0215    	1.53        	1               	;
 J-22            	984.1351    	2.23        	1               	;
 J-220           	995.2626    	1.86        	1               	;
 J-221           	1003.771    	0.96        	1               	;
 J-222           	1004.178    	1.96        	1               	;
 J-223           	973.1974    	2.73        	1               	;
 J-224           	1005.716    	2.92        	1               	;
 J-225           	998.5806    	2.83        	1               	;
 J-226           	953.6805    	1.04        	1               	;
 J-227           	948.8869    	0.48        	1               	;
 J-228           	961.9694    	1.28        	1               	;
 J-229           	894.8397    	2.48        	1               	;
 J-23            	971.2469    	1.32        	1               	;
 J-230           	979.791     	0.61        	1               	;
 J-231           	984.2581    	0.7         	1               	;
 J-232           	958.11      	0.77        	1               	;
 J-233           	965.6917    	1.32        	1               	;
 J-234           	975.8906    	3.8         	1               	;
 J-235           	964.2112    	0.97        	1               	;
 J-236           	986.8278    	2.41        	1               	;
 J-237           	984.1649    	1.83        	1               	;